@<TRIPOS>MOLECULE
/root/Scorpio2_PDB_Files/1a1e/dir_run/1a1e_LigandChain_PTR_D.pdb
 17 17 0 0 0
SMALL
GASTEIGER

@<TRIPOS>ATOM
      1  N         42.1690   -8.3110   38.2080 N.3   101  PTR101     -0.2388
      2  CA        41.8750   -7.5040   39.3540 C.3   101  PTR101      0.1374
      3  C         42.3970   -8.1890   40.5900 C.2   101  PTR101      0.2244
      4  O         42.8670   -9.3290   40.5910 O.2   101  PTR101     -0.2868
      5  CB        40.3910   -7.2910   39.3740 C.3   101  PTR101      0.0514
      6  CG        40.0200   -6.4670   38.1650 C.ar  101  PTR101     -0.0201
      7  CD1       39.4330   -7.0660   37.0710 C.ar  101  PTR101     -0.0011
      8  CD2       40.2030   -5.0890   38.1630 C.ar  101  PTR101     -0.0011
      9  CE1       39.0230   -6.2990   35.9910 C.ar  101  PTR101      0.0371
     10  CE2       39.7950   -4.3030   37.0800 C.ar  101  PTR101      0.0371
     11  CZ        39.1970   -4.9130   35.9920 C.ar  101  PTR101      0.1490
     12  OH        38.7140   -4.1030   34.8990 O.3   101  PTR101     -0.3998
     13  P         39.5630   -3.9590   33.5410 P.3   101  PTR101      0.5887
     14  O1P       39.2960   -5.2230   32.8550 O.2   101  PTR101     -0.2114
     15  O2P       38.9860   -2.7290   32.9200 O.3   101  PTR101     -0.1039
     16  O3P       40.9750   -3.8330   34.0580 O.3   101  PTR101     -0.1039
     17  H         41.5340   -8.9980   37.9150 H     101  PTR101      0.1418
@<TRIPOS>BOND
     1    14    13    2
     2    15    13    1
     3    13    16    1
     4    13    12    1
     5    12    11    1
     6     9    11   ar
     7     9     7   ar
     8    11    10   ar
     9     7     6   ar
    10    10     8   ar
    11    17     1    1
    12     8     6   ar
    13     6     5    1
    14     1     2    1
    15     2     5    1
    16     2     3    1
    17     3     4    2
