@<TRIPOS>MOLECULE
/root/Scorpio2_PDB_Files/1a1e/dir_run/1a1e_LigandChain_PTR_C.pdb
 17 17 0 0 0
SMALL
GASTEIGER

@<TRIPOS>ATOM
      1  N         41.8380    6.9940   23.7740 N.3   101  PTR101     -0.2388
      2  CA        41.7820    7.7280   22.5370 C.3   101  PTR101      0.1374
      3  C         40.5630    7.2990   21.7540 C.2   101  PTR101      0.2244
      4  O         40.0510    6.1860   21.8890 O.2   101  PTR101     -0.2868
      5  CB        43.0710    7.4600   21.7830 C.3   101  PTR101      0.0514
      6  CG        44.2050    8.0760   22.5800 C.ar  101  PTR101     -0.0201
      7  CD1       44.8240    7.3560   23.5890 C.ar  101  PTR101     -0.0011
      8  CD2       44.5990    9.3540   22.2980 C.ar  101  PTR101     -0.0011
      9  CE1       45.8430    7.9100   24.3220 C.ar  101  PTR101      0.0371
     10  CE2       45.6190    9.9110   23.0240 C.ar  101  PTR101      0.0371
     11  CZ        46.2370    9.1890   24.0260 C.ar  101  PTR101      0.1490
     12  OH        47.3620    9.7490   24.6990 O.3   101  PTR101     -0.3998
     13  P         47.3440   10.2050   26.1840 P.3   101  PTR101      0.5887
     14  O1P       47.4820    8.9580   26.9400 O.3   101  PTR101     -0.1039
     15  O2P       48.5250   11.0850   26.3010 O.2   101  PTR101     -0.2114
     16  O3P       46.0240   10.8930   26.3390 O.3   101  PTR101     -0.1039
     17  H         42.2390    6.1000   23.7740 H     101  PTR101      0.1418
@<TRIPOS>BOND
     1     3     4    2
     2     3     2    1
     3     5     2    1
     4     5     6    1
     5     8     6   ar
     6     8    10   ar
     7     2     1    1
     8     6     7   ar
     9    10    11   ar
    10     7     9   ar
    11    17     1    1
    12    11     9   ar
    13    11    12    1
    14    12    13    1
    15    13    15    2
    16    13    16    1
    17    13    14    1
